LAMMPS (3 Mar 2020)
units lj                 # use lennard-jones (i.e. dimensionless) units
atom_style bond          # atoms with bonds
boundary p p p           # all boundaries are periodic
neighbor 0.4 bin                       # Where does the 0.4 parameter come from? and neighbor?
neigh_modify every 1 delay 1 check yes # What does neigh_modify do?
#neigh_modify every 2 delay 10 check yes page 100000

# Potentials Between bonded atoms
# ----------------- Init Section -----------------

include "system.in.init"
    units           lj
    atom_style      bond
    bond_style      harmonic
    pair_style dpd 1.0 1.0 419084618 # Dpd parameter?

# ----------------- Atom Definition Section -----------------

read_data "systemEquilibrated.data"
  orthogonal box = (0 0 0) to (30 30 30)
  reading atoms ...
  81000 atoms
  reading velocities ...
  81000 velocities
  scanning bonds ...
  reading bonds ...
  2375 bonds

# ----------------- Settings Section -----------------

include "system.in.settings"

    #pair_coeff 1 2 25 4.5
    #pair_coeff  1  1      25 4.5
    #pair_coeff  2  2      25 4.5
    #pair_coeff 2 4 25 4.5
    #pair_coeff 1 4 25 4.5
    #pair_coeff  4  4      25 4.5
    #pair_coeff 1 3 25 4.5
    #pair_coeff 2 3 25 4.5
    #pair_coeff 3 3 25 4.5
    #pair_coeff 3 4 25 4.5

    pair_coeff 1 2 75 4.5
    pair_coeff  1  1      25 4.5
    pair_coeff  2  2      25 4.5
    pair_coeff 2 4 35 4.5
    pair_coeff 1 4 75 4.5
    pair_coeff  4  4      25 4.5
    pair_coeff 1 3 35 4.5
    pair_coeff 2 3 35 4.5
    pair_coeff 3 3 25 4.5
    pair_coeff 3 4 40 4.5

    comm_modify cutoff 5.0 vel yes

    bond_coeff     1   4.0   1.0
    bond_coeff     2   4.0   1.0
    bond_coeff     3   4.0   1.0
    bond_coeff     4   4.0   1.0
    bond_coeff     5   4.0   1.0
    bond_coeff     6   4.0   1.0

# fix 1 all nvt temp 1.0 1.0 3 # Dampning Paramater
# fix 1 all mvv/dpd 0.67

fix 1 all nve
#fix 2 all langevin 1.0 1.1 100.0 48279 scale 3 1.5

group pol type 1 2 3
2500 atoms in group pol
timestep 0.04 #Time Step
run_style verlet

dump            1 pol custom 5000 dump.soft id mol type x y z ix iy iz
thermo_style    custom step temp pe etotal press vol epair ebond eangle edihed
thermo          1000  # time interval for printing out "thermo" data

run		625000
  update every 1 steps, delay 1 steps, check yes
Step Temp PotEng TotEng Press Volume E_pair E_bond E_angle E_dihed
0    1.0282201    4.6500964    6.1924076    24.335183        27000    4.6308883  0.019208152            0            0
Averages over the last 313 of 626 rows, steps 313000 to 625000:
Temp PotEng TotEng Press Volume E_pair E_bond E_angle E_dihed
1.0282 4.49262 6.03491 23.6312 27000 4.46871 0.023911 0 0
Loop time of 5403.68 on 176 procs for 625000 steps with 81000 atoms

write_data  systemAssembled.data
