LAMMPS (29 Oct 2020)
units lj                 # use lennard-jones (i.e. dimensionless) units
atom_style bond          # atoms with bonds
boundary p p p           # all boundaries are periodic
neighbor 0.4 bin                       # Where does the 0.4 parameter come from? and neighbor?
neigh_modify every 1 delay 1 check yes # What does neigh_modify do?
#neigh_modify every 2 delay 10 check yes page 100000

# Potentials Between bonded atoms
# ----------------- Init Section -----------------

include "system.in.init"
    units           lj
    atom_style      bond
    bond_style      harmonic
    pair_style dpd 1.0 1.0 419084618 # Dpd parameter?

# ----------------- Atom Definition Section -----------------

read_data "systemSolvated.data"
Reading data file ...
  orthogonal box = (0.0000000 0.0000000 0.0000000) to (10.000000 10.000000 10.000000)
  reading atoms ...
  3415 atoms
  scanning bonds ...
  reading bonds ...
  32 bonds
Finding 1-2 1-3 1-4 neighbors ...
     2 = max # of 1-2 neighbors
     2 = max # of 1-3 neighbors
     2 = max # of 1-4 neighbors
     4 = max # of special neighbors

# ----------------- Settings Section -----------------

include "system.in.settings"
    pair_coeff 1 2 75 1.0
    pair_coeff  1  1      25 1.0
    pair_coeff  2  2      25 1.0
    pair_coeff 2 4 35 1.0
    pair_coeff 1 4 75 1.0
    pair_coeff  4  4      25 1.0
    pair_coeff 1 3 35 1.0
    pair_coeff 2 3 35 1.0
    pair_coeff 3 3 25 1.0
    pair_coeff 3 4 40 1.0

    comm_modify cutoff 5.0 vel yes

    bond_coeff     1   4.0   1.0
    bond_coeff     2   4.0   1.0
    bond_coeff     3   4.0   1.0
    bond_coeff     4   4.0   1.0
    bond_coeff     5   4.0   1.0
    bond_coeff     6   4.0   1.0

variable seed equal 5465465     # a seed for the thermostat

velocity all create 1.0 8178251

fix 1 all nvt temp 1.0 1.0 0.67 # Dampning Paramater
#fix 1 all nve
#fix 2 all langevin 1.0 1.1 100.0 48279 scale 3 1.5

group pol type 1 2
24 atoms in group pol
timestep 0.05 #Time Step

dump            1 pol custom 5000 dump.soft id mol type x y z ix iy iz
thermo_style    custom step temp pe etotal press vol epair ebond eangle edihed
thermo          1000  # time interval for printing out "thermo" data

run		35000
  update every 1 steps, delay 1 steps, check yes
Step Temp PotEng TotEng Press Volume E_pair E_bond E_angle E_dihed
0            1    4.4874519    5.9870126    28.240391         1000    4.4870176 0.00043425211            0            0
Averages over the last 18 of 36 rows, steps 18000 to 35000:
Temp PotEng TotEng Press Volume E_pair E_bond E_angle E_dihed
0.999628 5.52282 7.02183 30.804 1000 5.51229 0.0105349 0 0
Loop time of 221.181 on 1 procs for 35000 steps with 3415 atoms

write_data  system.data
System init for write_data ...
