LAMMPS (29 Oct 2020)
units lj                 # use lennard-jones (i.e. dimensionless) units
atom_style bond          # atoms with bonds
boundary p p p           # all boundaries are periodic
neighbor 0.4 bin
neigh_modify every 1 delay 1 check yes
thermo 1000
# Potentials Between bonded atoms
# ----------------- Init Section -----------------

include "system.in.init"
    units           lj
    atom_style      bond
    bond_style      harmonic
    pair_style      lj/cut 2.5
    special_bonds   lj 0.0 0.0 0.0

# ----------------- Atom Definition Section -----------------

read_data "systembond.data"
Reading data file ...
  orthogonal box = (0.0000000 0.0000000 0.0000000) to (10.000000 10.000000 10.000000)
  reading atoms ...
  56 atoms
  scanning bonds ...
  reading bonds ...
  48 bonds
Finding 1-2 1-3 1-4 neighbors ...
     2 = max # of 1-2 neighbors
     2 = max # of 1-3 neighbors
     4 = max # of 1-4 neighbors
     6 = max # of special neighbors

# ----------------- Settings Section -----------------

include "system.in.settings"
pair_coeff 1 2 0.055 1.0 2.5
    pair_coeff  1  1      1.0  1.0 1.122
    pair_coeff  2  2      1.0 1.0 1.122
    pair_modify shift yes

    bond_coeff     1   50.0   1.0
    bond_coeff     2   50.0   1.0
    bond_coeff     3   50.0   1.0

variable seed equal 5465465     # a seed for the thermostat

#velocity 	all create 5000.0 1231
fix		1 all nve/limit 0.05
fix		2 all langevin 1.0 1.0 1.0 904297
thermo_style	custom step temp
thermo          10000
timestep	0.001
run		10000
  update every 1 steps, delay 1 steps, check yes
Step Temp
       0            0
   10000    1.1176071
Loop time of 0.114818 on 1 procs for 10000 steps with 56 atoms

unfix 1
unfix 2

minimize 1.0e-12 1.0e-12 10000 100000
Step Temp
   10000    1.1176071
   11475    1.1176071
Loop time of 0.0824573 on 1 procs for 1475 steps with 56 atoms

Minimization stats:
  Stopping criterion = linesearch alpha is zero
  Energy initial, next-to-last, final =
  Force two-norm initial, final = 90.415640 0.085530995
  Force max component initial, final = 27.087990 0.041068465
  Final line search alpha, max atom move = 0.00390625 0.00016042369
  Iterations, force evaluations = 1475 4046

velocity 	all create 1.0 1231
fix 1 all nvt temp 1.0 1.0 0.5

thermo_style    custom step temp pe etotal press vol epair ebond eangle edihed
thermo          1000  # time interval for printing out "thermo" data

run		100000
Step Temp PotEng TotEng Press Volume E_pair E_bond E_angle E_dihed
11475            1 -0.061403948    1.4118103  0.055000826         1000 -0.061406045 2.0975613e-06            0            0
Averages over the last 51 of 102 rows, steps 62000 to 111475:
Temp PotEng TotEng Press Volume E_pair E_bond E_angle E_dihed
1.00472 0.408777 1.88894 0.0163805 1000 -0.0013772 0.410154 0 0
Loop time of 0.760529 on 1 procs for 100000 steps with 56 atoms

write_data  system.data
System init for write_data ...
