LAMMPS (29 Oct 2020)
units lj                 # use lennard-jones (i.e. dimensionless) units
atom_style bond          # atoms with bonds
boundary p p p           # all boundaries are periodic
neighbor 0.4 bin
neigh_modify every 1 delay 1 check yes
thermo 1000
# Potentials Between bonded atoms
# ----------------- Init Section -----------------

include "system.in.init"
    units           lj
    atom_style      bond
    bond_style      harmonic
    pair_style      lj/cut 2.5
    special_bonds   lj 0.0 0.0 0.0

# ----------------- Atom Definition Section -----------------

read_data "systembond.data"
Reading data file ...
  orthogonal box = (0.0000000 0.0000000 0.0000000) to (30.000000 30.000000 30.000000)
  reading atoms ...
  2500 atoms
  scanning bonds ...
  reading bonds ...
  2375 bonds
Finding 1-2 1-3 1-4 neighbors ...
     2 = max # of 1-2 neighbors
     2 = max # of 1-3 neighbors
     4 = max # of 1-4 neighbors
     6 = max # of special neighbors

# ----------------- Settings Section -----------------

include "system.in.settings"
pair_coeff 1 2 0.055 1.0 2.5
    pair_coeff  1  1      0.055 1.0 2.5
    pair_coeff  2  2      0.055 1.0 2.5
pair_coeff 1 3 0.055 1.0 2.5
pair_coeff 1 3 0.055 1.0 2.5
    pair_coeff  3  3      0.055 1.0 2.5
    pair_modify shift yes

    bond_coeff     1   50.0   1.0
    bond_coeff     2   50.0   1.0
    bond_coeff     3   50.0   1.0
    bond_coeff     4   50.0   1.0
    bond_coeff     5   50.0   1.0
    bond_coeff     6   50.0   1.0

variable seed equal 5465465     # a seed for the thermostat

#velocity 	all create 5000.0 1231
fix		1 all nve/limit 0.05
fix		2 all langevin 1.0 1.0 1.0 904297
thermo_style	custom step temp
thermo          10000
timestep	0.001
run		10000
  update every 1 steps, delay 1 steps, check yes
Step Temp
       0            0
   10000   0.98104977
Loop time of 8.64916 on 1 procs for 10000 steps with 2500 atoms

unfix 1
unfix 2

minimize 1.0e-12 1.0e-12 10000 100000
Step Temp
   10000   0.98104977
   20000   0.98104977
Loop time of 47.07 on 1 procs for 10000 steps with 2500 atoms

Minimization stats:
  Stopping criterion = max iterations
  Energy initial, next-to-last, final =
  Force two-norm initial, final = 706.54657 0.003682393
  Force max component initial, final = 69.017081 0.00035478525
  Final line search alpha, max atom move = 1.0000000 0.00035478525
  Iterations, force evaluations = 10000 19996

velocity 	all create 1.0 1231
fix 1 all nvt temp 1.0 1.0 0.5

thermo_style    custom step temp pe etotal press vol epair ebond eangle edihed
thermo          1000  # time interval for printing out "thermo" data

run		100000
Step Temp PotEng TotEng Press Volume E_pair E_bond E_angle E_dihed
20000            1  -0.37440478    1.1249952  0.092323506        27000  -0.37511841 0.0007136274            0            0
Averages over the last 51 of 101 rows, steps 70000 to 120000:
Temp PotEng TotEng Press Volume E_pair E_bond E_angle E_dihed
1.00115 0.478676 1.9798 0.00868291 27000 -0.00834129 0.487017 0 0
Loop time of 44.4545 on 1 procs for 100000 steps with 2500 atoms

write_data  system.data
System init for write_data ...
